data/R/LineCodes.dss
New Linecode.1P_Code2 units=km nphases=1 R1=0.7839 R0=0.7839 X1=0.0915 X0=0.0915
New Linecode.1P_Code8 units=km nphases=1 R1=1.247 R0=1.247 X1=0.2494 X0=0.2494 
New Linecode.1P_Code9 units=km nphases=1 R1=1.29 R0=1.29 X1=0.258 X0=0.258
New Linecode.2P_Code0 units=km nphases=2 R1=0.164 R0=0.164 X1=0.062 X0=0.062 
New Linecode.2P_Code1 units=km nphases=2 R1=0.1 R0=0.1 X1=0.061 X0=0.061
New Linecode.2P_Code11 units=km nphases=2 R1=1.29 R0=1.29 X1=0.258 X0=0.258 
New Linecode.2P_Code3 units=km nphases=2 R1=0.1 R0=0.1 X1=0.4 X0=0.4  
New Linecode.2P_Code4 units=km nphases=2 R1=0.7839 R0=0.7839 X1=0.0915 X0=0.0915 
New Linecode.2P_Code5 units=km nphases=2 R1=1.247 R0=1.247 X1=0.2494 X0=0.2494  
New Linecode.2P_Code6 units=km nphases=2 R1=0.32 R0=0.32 X1=0.063 X0=0.063 
New Linecode.2P_OH_Code10 units=km nphases=2 R1=0.3751 R0=0.3751 X1=0.3601 X0=0.3601 
New Linecode.2P_OH_Code7 units=km nphases=2 R1=0.2614 R0=0.2614 X1=0.3489 X0=0.3489
